5500001
  -OEChem-12032305052D

 45 47  0     0  0  0  0  0  0999 V2000
    6.0033    5.7510    0.0000 Br  0  0  0  0  0  0  0  0  0  0  0  0
    6.3301   -1.7510    0.0000 O   0  0  0  0  0  0  0  0  0  0  0  0
    4.9641    1.2878    0.0000 N   0  0  0  0  0  0  0  0  0  0  0  0
    4.6551    0.3368    0.0000 N   0  0  0  0  0  0  0  0  0  0  0  0
    4.5981   -1.7510    0.0000 N   0  0  0  0  0  0  0  0  0  0  0  0
    3.7320   -1.2510    0.0000 N   0  0  0  0  0  0  0  0  0  0  0  0
    4.3763    2.0968    0.0000 C   0  0  0  0  0  0  0  0  0  0  0  0
    4.7830    3.0104    0.0000 C   0  0  0  0  0  0  0  0  0  0  0  0
    5.9641    1.2878    0.0000 C   0  0  0  0  0  0  0  0  0  0  0  0
    5.4641   -0.2510    0.0000 C   0  0  0  0  0  0  0  0  0  0  0  0
    6.2731    0.3368    0.0000 C   0  0  0  0  0  0  0  0  0  0  0  0
    5.7776    3.1149    0.0000 C   0  0  0  0  0  0  0  0  0  0  0  0
    4.1953    3.8194    0.0000 C   0  0  0  0  0  0  0  0  0  0  0  0
    2.8660   -2.7510    0.0000 C   0  0  0  0  0  0  0  0  0  0  0  0
    2.8660   -1.7510    0.0000 C   0  0  0  0  0  0  0  0  0  0  0  0
    2.8660   -4.7510    0.0000 C   0  0  0  0  0  0  0  0  0  0  0  0
    5.4641   -1.2510    0.0000 C   0  0  0  0  0  0  0  0  0  0  0  0
    2.0000   -3.2510    0.0000 C   0  0  0  0  0  0  0  0  0  0  0  0
    3.7320   -3.2510    0.0000 C   0  0  0  0  0  0  0  0  0  0  0  0
    6.1843    4.0285    0.0000 C   0  0  0  0  0  0  0  0  0  0  0  0
    4.6020    4.7330    0.0000 C   0  0  0  0  0  0  0  0  0  0  0  0
    2.0000   -4.2510    0.0000 C   0  0  0  0  0  0  0  0  0  0  0  0
    3.7320   -4.2510    0.0000 C   0  0  0  0  0  0  0  0  0  0  0  0
    5.5965    4.8375    0.0000 C   0  0  0  0  0  0  0  0  0  0  0  0
    2.0000   -1.2510    0.0000 C   0  0  0  0  0  0  0  0  0  0  0  0
    2.8660   -5.7510    0.0000 C   0  0  0  0  0  0  0  0  0  0  0  0
    3.8623    2.4435    0.0000 H   0  0  0  0  0  0  0  0  0  0  0  0
    3.9456    1.6508    0.0000 H   0  0  0  0  0  0  0  0  0  0  0  0
    6.3285    1.7894    0.0000 H   0  0  0  0  0  0  0  0  0  0  0  0
    6.8628    0.1452    0.0000 H   0  0  0  0  0  0  0  0  0  0  0  0
    6.1420    2.6133    0.0000 H   0  0  0  0  0  0  0  0  0  0  0  0
    3.5787    3.7546    0.0000 H   0  0  0  0  0  0  0  0  0  0  0  0
    1.4631   -2.9410    0.0000 H   0  0  0  0  0  0  0  0  0  0  0  0
    4.2690   -2.9410    0.0000 H   0  0  0  0  0  0  0  0  0  0  0  0
    6.8009    4.0933    0.0000 H   0  0  0  0  0  0  0  0  0  0  0  0
    4.2376    5.2345    0.0000 H   0  0  0  0  0  0  0  0  0  0  0  0
    1.4631   -4.5610    0.0000 H   0  0  0  0  0  0  0  0  0  0  0  0
    4.2690   -4.5610    0.0000 H   0  0  0  0  0  0  0  0  0  0  0  0
    4.5981   -2.3710    0.0000 H   0  0  0  0  0  0  0  0  0  0  0  0
    2.3100   -0.7141    0.0000 H   0  0  0  0  0  0  0  0  0  0  0  0
    1.4631   -0.9410    0.0000 H   0  0  0  0  0  0  0  0  0  0  0  0
    1.6900   -1.7880    0.0000 H   0  0  0  0  0  0  0  0  0  0  0  0
    2.2460   -5.7510    0.0000 H   0  0  0  0  0  0  0  0  0  0  0  0
    2.8660   -6.3710    0.0000 H   0  0  0  0  0  0  0  0  0  0  0  0
    3.4860   -5.7510    0.0000 H   0  0  0  0  0  0  0  0  0  0  0  0
  1 24  1  0  0  0  0
  2 17  2  0  0  0  0
  3  4  1  0  0  0  0
  3  7  1  0  0  0  0
  3  9  1  0  0  0  0
  4 10  2  0  0  0  0
  5  6  1  0  0  0  0
  5 17  1  0  0  0  0
  5 39  1  0  0  0  0
  6 15  2  0  0  0  0
  7  8  1  0  0  0  0
  7 27  1  0  0  0  0
  7 28  1  0  0  0  0
  8 12  2  0  0  0  0
  8 13  1  0  0  0  0
  9 11  2  0  0  0  0
  9 29  1  0  0  0  0
 10 11  1  0  0  0  0
 10 17  1  0  0  0  0
 11 30  1  0  0  0  0
 12 20  1  0  0  0  0
 12 31  1  0  0  0  0
 13 21  2  0  0  0  0
 13 32  1  0  0  0  0
 14 15  1  0  0  0  0
 14 18  2  0  0  0  0
 14 19  1  0  0  0  0
 15 25  1  0  0  0  0
 16 22  2  0  0  0  0
 16 23  1  0  0  0  0
 16 26  1  0  0  0  0
 18 22  1  0  0  0  0
 18 33  1  0  0  0  0
 19 23  2  0  0  0  0
 19 34  1  0  0  0  0
 20 24  2  0  0  0  0
 20 35  1  0  0  0  0
 21 24  1  0  0  0  0
 21 36  1  0  0  0  0
 22 37  1  0  0  0  0
 23 38  1  0  0  0  0
 25 40  1  0  0  0  0
 25 41  1  0  0  0  0
 25 42  1  0  0  0  0
 26 43  1  0  0  0  0
 26 44  1  0  0  0  0
 26 45  1  0  0  0  0
M  END
> <PUBCHEM_COMPOUND_CID>
5500001

> <PUBCHEM_COMPOUND_CANONICALIZED>
1

> <PUBCHEM_CACTVS_COMPLEXITY>
496

> <PUBCHEM_CACTVS_HBOND_ACCEPTOR>
3

> <PUBCHEM_CACTVS_HBOND_DONOR>
1

> <PUBCHEM_CACTVS_ROTATABLE_BOND>
5

> <PUBCHEM_CACTVS_SUBSKEYS>
AAADceB7oAAAEAAAAAAAAAAAAAAAAWAAAAAwYAAAAAAAAAAB0AAAHgBYAAABrAjBngQ+gJJqAACqAzV3VACSBAA3ggQa2CG4ZPgIYLLA1dGEpQhgiADIy5cUgMAOQgAAAAAAAACEAAAAAAAAAAAAAAAAAA==

> <PUBCHEM_IUPAC_OPENEYE_NAME>
1-[(4-bromophenyl)methyl]-N-[(Z)-1-(p-tolyl)ethylideneamino]pyrazole-3-carboxamide

> <PUBCHEM_IUPAC_CAS_NAME>
1-[(4-bromophenyl)methyl]-N-[(Z)-1-(4-methylphenyl)ethylideneamino]-3-pyrazolecarboxamide

> <PUBCHEM_IUPAC_NAME_MARKUP>
1-[(4-bromophenyl)methyl]-<I>N</I>-[(<I>Z</I>)-1-(4-methylphenyl)ethylideneamino]pyrazole-3-carboxamide

> <PUBCHEM_IUPAC_NAME>
1-[(4-bromophenyl)methyl]-N-[(Z)-1-(4-methylphenyl)ethylideneamino]pyrazole-3-carboxamide

> <PUBCHEM_IUPAC_SYSTEMATIC_NAME>
1-[(4-bromophenyl)methyl]-N-[(Z)-1-(4-methylphenyl)ethylideneamino]pyrazole-3-carboxamide

> <PUBCHEM_IUPAC_TRADITIONAL_NAME>
1-(4-bromobenzyl)-N-[(Z)-1-(p-tolyl)ethylideneamino]pyrazole-3-carboxamide

> <PUBCHEM_IUPAC_INCHI>
InChI=1S/C20H19BrN4O/c1-14-3-7-17(8-4-14)15(2)22-23-20(26)19-11-12-25(24-19)13-16-5-9-18(21)10-6-16/h3-12H,13H2,1-2H3,(H,23,26)/b22-15-

> <PUBCHEM_IUPAC_INCHIKEY>
SVXMYQGVIXHGHC-JCMHNJIXSA-N

> <PUBCHEM_XLOGP3_AA>
4.3

> <PUBCHEM_EXACT_MASS>
410.07422

> <PUBCHEM_MOLECULAR_FORMULA>
C20H19BrN4O

> <PUBCHEM_MOLECULAR_WEIGHT>
411.3

> <PUBCHEM_OPENEYE_CAN_SMILES>
CC1=CC=C(C=C1)C(=NNC(=O)C2=NN(C=C2)CC3=CC=C(C=C3)Br)C

> <PUBCHEM_OPENEYE_ISO_SMILES>
CC1=CC=C(C=C1)/C(=N\NC(=O)C2=NN(C=C2)CC3=CC=C(C=C3)Br)/C

> <PUBCHEM_CACTVS_TPSA>
59.3

> <PUBCHEM_MONOISOTOPIC_WEIGHT>
410.07422

> <PUBCHEM_TOTAL_CHARGE>
0

> <PUBCHEM_HEAVY_ATOM_COUNT>
26

> <PUBCHEM_ATOM_DEF_STEREO_COUNT>
0

> <PUBCHEM_ATOM_UDEF_STEREO_COUNT>
0

> <PUBCHEM_BOND_DEF_STEREO_COUNT>
1

> <PUBCHEM_BOND_UDEF_STEREO_COUNT>
0

> <PUBCHEM_ISOTOPIC_ATOM_COUNT>
0

> <PUBCHEM_COMPONENT_COUNT>
1

> <PUBCHEM_CACTVS_TAUTO_COUNT>
-1

> <PUBCHEM_COORDINATE_TYPE>
1
5
255

> <PUBCHEM_BONDANNOTATIONS>
10  11  8
12  20  8
13  21  8
14  18  8
14  19  8
16  22  8
16  23  8
18  22  8
19  23  8
20  24  8
21  24  8
3  4  8
3  9  8
4  10  8
8  12  8
8  13  8
9  11  8

$$$$
5500002
  -OEChem-12032305052D

 49 51  0     0  0  0  0  0  0999 V2000
    6.3301   -4.9055    0.0000 Br  0  0  0  0  0  0  0  0  0  0  0  0
    2.8660   -4.9055    0.0000 O   0  0  0  0  0  0  0  0  0  0  0  0
    4.5981   -5.9055    0.0000 O   0  0  0  0  0  0  0  0  0  0  0  0
    8.0622   -1.9055    0.0000 O   0  0  0  0  0  0  0  0  0  0  0  0
    7.2448    6.4055    0.0000 O   0  5  0  0  0  0  0  0  0  0  0  0
    5.6625    5.7010    0.0000 O   0  0  0  0  0  0  0  0  0  0  0  0
    7.6962    1.1333    0.0000 N   0  0  0  0  0  0  0  0  0  0  0  0
    8.0052    0.1823    0.0000 N   0  0  0  0  0  0  0  0  0  0  0  0
    6.3301   -1.9055    0.0000 N   0  0  0  0  0  0  0  0  0  0  0  0
    6.6570    5.5965    0.0000 N   0  3  0  0  0  0  0  0  0  0  0  0
    5.4641   -1.4055    0.0000 N   0  0  0  0  0  0  0  0  0  0  0  0
    8.2839    1.9423    0.0000 C   0  0  0  0  0  0  0  0  0  0  0  0
    7.8772    2.8559    0.0000 C   0  0  0  0  0  0  0  0  0  0  0  0
    6.6962    1.1333    0.0000 C   0  0  0  0  0  0  0  0  0  0  0  0
    8.4650    3.6649    0.0000 C   0  0  0  0  0  0  0  0  0  0  0  0
    6.8827    2.9604    0.0000 C   0  0  0  0  0  0  0  0  0  0  0  0
    7.1962   -0.4055    0.0000 C   0  0  0  0  0  0  0  0  0  0  0  0
    6.3871    0.1823    0.0000 C   0  0  0  0  0  0  0  0  0  0  0  0
    8.0582    4.5784    0.0000 C   0  0  0  0  0  0  0  0  0  0  0  0
    6.4759    3.8740    0.0000 C   0  0  0  0  0  0  0  0  0  0  0  0
    7.0637    4.6830    0.0000 C   0  0  0  0  0  0  0  0  0  0  0  0
    7.1962   -1.4055    0.0000 C   0  0  0  0  0  0  0  0  0  0  0  0
    4.5981   -2.9055    0.0000 C   0  0  0  0  0  0  0  0  0  0  0  0
    3.7320   -4.4055    0.0000 C   0  0  0  0  0  0  0  0  0  0  0  0
    3.7320   -3.4055    0.0000 C   0  0  0  0  0  0  0  0  0  0  0  0
    4.5981   -4.9055    0.0000 C   0  0  0  0  0  0  0  0  0  0  0  0
    5.4641   -3.4055    0.0000 C   0  0  0  0  0  0  0  0  0  0  0  0
    5.4641   -4.4055    0.0000 C   0  0  0  0  0  0  0  0  0  0  0  0
    4.5981   -1.9055    0.0000 C   0  0  0  0  0  0  0  0  0  0  0  0
    2.0000   -4.4055    0.0000 C   0  0  0  0  0  0  0  0  0  0  0  0
    3.7320   -6.4055    0.0000 C   0  0  0  0  0  0  0  0  0  0  0  0
    8.7146    1.4963    0.0000 H   0  0  0  0  0  0  0  0  0  0  0  0
    8.7979    2.2890    0.0000 H   0  0  0  0  0  0  0  0  0  0  0  0
    6.3317    1.6349    0.0000 H   0  0  0  0  0  0  0  0  0  0  0  0
    9.0816    3.6001    0.0000 H   0  0  0  0  0  0  0  0  0  0  0  0
    6.5182    2.4588    0.0000 H   0  0  0  0  0  0  0  0  0  0  0  0
    5.7975   -0.0093    0.0000 H   0  0  0  0  0  0  0  0  0  0  0  0
    8.4227    5.0800    0.0000 H   0  0  0  0  0  0  0  0  0  0  0  0
    5.8593    3.9388    0.0000 H   0  0  0  0  0  0  0  0  0  0  0  0
    3.1951   -3.0955    0.0000 H   0  0  0  0  0  0  0  0  0  0  0  0
    6.0010   -3.0955    0.0000 H   0  0  0  0  0  0  0  0  0  0  0  0
    4.0611   -1.5955    0.0000 H   0  0  0  0  0  0  0  0  0  0  0  0
    6.3301   -2.5255    0.0000 H   0  0  0  0  0  0  0  0  0  0  0  0
    2.3100   -3.8686    0.0000 H   0  0  0  0  0  0  0  0  0  0  0  0
    1.4631   -4.0955    0.0000 H   0  0  0  0  0  0  0  0  0  0  0  0
    1.6900   -4.9425    0.0000 H   0  0  0  0  0  0  0  0  0  0  0  0
    3.4220   -5.8686    0.0000 H   0  0  0  0  0  0  0  0  0  0  0  0
    3.1951   -6.7155    0.0000 H   0  0  0  0  0  0  0  0  0  0  0  0
    4.0420   -6.9425    0.0000 H   0  0  0  0  0  0  0  0  0  0  0  0
  1 28  1  0  0  0  0
  2 24  1  0  0  0  0
  2 30  1  0  0  0  0
  3 26  1  0  0  0  0
  3 31  1  0  0  0  0
  4 22  2  0  0  0  0
  5 10  1  0  0  0  0
  6 10  2  0  0  0  0
  7  8  1  0  0  0  0
  7 12  1  0  0  0  0
  7 14  1  0  0  0  0
  8 17  2  0  0  0  0
  9 11  1  0  0  0  0
  9 22  1  0  0  0  0
  9 43  1  0  0  0  0
 10 21  1  0  0  0  0
 11 29  2  0  0  0  0
 12 13  1  0  0  0  0
 12 32  1  0  0  0  0
 12 33  1  0  0  0  0
 13 15  2  0  0  0  0
 13 16  1  0  0  0  0
 14 18  2  0  0  0  0
 14 34  1  0  0  0  0
 15 19  1  0  0  0  0
 15 35  1  0  0  0  0
 16 20  2  0  0  0  0
 16 36  1  0  0  0  0
 17 18  1  0  0  0  0
 17 22  1  0  0  0  0
 18 37  1  0  0  0  0
 19 21  2  0  0  0  0
 19 38  1  0  0  0  0
 20 21  1  0  0  0  0
 20 39  1  0  0  0  0
 23 25  2  0  0  0  0
 23 27  1  0  0  0  0
 23 29  1  0  0  0  0
 24 25  1  0  0  0  0
 24 26  2  0  0  0  0
 25 40  1  0  0  0  0
 26 28  1  0  0  0  0
 27 28  2  0  0  0  0
 27 41  1  0  0  0  0
 29 42  1  0  0  0  0
 30 44  1  0  0  0  0
 30 45  1  0  0  0  0
 30 46  1  0  0  0  0
 31 47  1  0  0  0  0
 31 48  1  0  0  0  0
 31 49  1  0  0  0  0
M  CHG  2   5  -1  10   1
M  END
> <PUBCHEM_COMPOUND_CID>
5500002

> <PUBCHEM_COMPOUND_CANONICALIZED>
1

> <PUBCHEM_CACTVS_COMPLEXITY>
640

> <PUBCHEM_CACTVS_HBOND_ACCEPTOR>
7

> <PUBCHEM_CACTVS_HBOND_DONOR>
1

> <PUBCHEM_CACTVS_ROTATABLE_BOND>
7

> <PUBCHEM_CACTVS_SUBSKEYS>
AAADceB7uAAAEAAAAAAAAAAAAAAAAWAAAAAwYAAAAAAAAAAB0AAAHgBcAAABrAzBngY+xpJ6RACrAzV3VwCSDAA3ogQ62CG+7PoNZrLE9duEtSpkyBHK65eUwBAOKAABEIAARABQAAIhAACIAAAAAAAAAA==

> <PUBCHEM_IUPAC_OPENEYE_NAME>
N-[(Z)-(3-bromo-4,5-dimethoxy-phenyl)methyleneamino]-1-[(4-nitrophenyl)methyl]pyrazole-3-carboxamide

> <PUBCHEM_IUPAC_CAS_NAME>
N-[(Z)-(3-bromo-4,5-dimethoxyphenyl)methylideneamino]-1-[(4-nitrophenyl)methyl]-3-pyrazolecarboxamide

> <PUBCHEM_IUPAC_NAME_MARKUP>
<I>N</I>-[(<I>Z</I>)-(3-bromo-4,5-dimethoxyphenyl)methylideneamino]-1-[(4-nitrophenyl)methyl]pyrazole-3-carboxamide

> <PUBCHEM_IUPAC_NAME>
N-[(Z)-(3-bromo-4,5-dimethoxyphenyl)methylideneamino]-1-[(4-nitrophenyl)methyl]pyrazole-3-carboxamide

> <PUBCHEM_IUPAC_SYSTEMATIC_NAME>
N-[(Z)-(3-bromanyl-4,5-dimethoxy-phenyl)methylideneamino]-1-[(4-nitrophenyl)methyl]pyrazole-3-carboxamide

> <PUBCHEM_IUPAC_TRADITIONAL_NAME>
N-[(Z)-(3-bromo-4,5-dimethoxy-benzylidene)amino]-1-(4-nitrobenzyl)pyrazole-3-carboxamide

> <PUBCHEM_IUPAC_INCHI>
InChI=1S/C20H18BrN5O5/c1-30-18-10-14(9-16(21)19(18)31-2)11-22-23-20(27)17-7-8-25(24-17)12-13-3-5-15(6-4-13)26(28)29/h3-11H,12H2,1-2H3,(H,23,27)/b22-11-

> <PUBCHEM_IUPAC_INCHIKEY>
OFOWCGWLPDYDMY-JJFYIABZSA-N

> <PUBCHEM_XLOGP3_AA>
3.5

> <PUBCHEM_EXACT_MASS>
487.04913

> <PUBCHEM_MOLECULAR_FORMULA>
C20H18BrN5O5

> <PUBCHEM_MOLECULAR_WEIGHT>
488.3

> <PUBCHEM_OPENEYE_CAN_SMILES>
COC1=C(C(=CC(=C1)C=NNC(=O)C2=NN(C=C2)CC3=CC=C(C=C3)[N+](=O)[O-])Br)OC

> <PUBCHEM_OPENEYE_ISO_SMILES>
COC1=C(C(=CC(=C1)/C=N\NC(=O)C2=NN(C=C2)CC3=CC=C(C=C3)[N+](=O)[O-])Br)OC

> <PUBCHEM_CACTVS_TPSA>
124

> <PUBCHEM_MONOISOTOPIC_WEIGHT>
487.04913

> <PUBCHEM_TOTAL_CHARGE>
0

> <PUBCHEM_HEAVY_ATOM_COUNT>
31

> <PUBCHEM_ATOM_DEF_STEREO_COUNT>
0

> <PUBCHEM_ATOM_UDEF_STEREO_COUNT>
0

> <PUBCHEM_BOND_DEF_STEREO_COUNT>
1

> <PUBCHEM_BOND_UDEF_STEREO_COUNT>
0

> <PUBCHEM_ISOTOPIC_ATOM_COUNT>
0

> <PUBCHEM_COMPONENT_COUNT>
1

> <PUBCHEM_CACTVS_TAUTO_COUNT>
-1

> <PUBCHEM_COORDINATE_TYPE>
1
5
255

> <PUBCHEM_BONDANNOTATIONS>
13  15  8
13  16  8
14  18  8
15  19  8
16  20  8
17  18  8
19  21  8
20  21  8
23  25  8
23  27  8
24  25  8
24  26  8
26  28  8
27  28  8
7  14  8
7  8  8
8  17  8

$$$$